xflr5 v6.61

Plane name :        ex_plain
Polar name :        T1-25.0 m/s-VLM1
Freestream speed :  25.000 m/s


   alpha      Beta       CL          CDi        CDv        CD         CY         Cl         Cm         Cn        Cni       QInf        XCP
  -10.000     0.000  -0.588298   0.027387   0.020579   0.047966  -0.000000  -0.000000   0.698238  -0.000000  -0.000000   25.0000     0.3039
   -9.500     0.000  -0.543922   0.024211   0.019884   0.044095  -0.000000   0.000000   0.659106  -0.000000  -0.000000   25.0000     0.3097
   -9.000     0.000  -0.499413   0.021234   0.019236   0.040469  -0.000000  -0.000000   0.619756  -0.000000   0.000000   25.0000     0.3167
   -8.500     0.000  -0.454780   0.018458   0.018610   0.037068  -0.000000  -0.000000   0.580195   0.000000   0.000000   25.0000     0.3251
   -8.000     0.000  -0.410031   0.015886   0.018012   0.033898  -0.000000   0.000000   0.540435   0.000000   0.000000   25.0000     0.3354
   -7.500     0.000  -0.365175   0.013520   0.017463   0.030983  -0.000000  -0.000000   0.500489  -0.000000   0.000000   25.0000     0.3482
   -7.000     0.000  -0.320220   0.011363   0.016939   0.028302  -0.000000   0.000000   0.460367   0.000000   0.000000   25.0000     0.3648
   -6.500     0.000  -0.275177   0.009415   0.016441   0.025856  -0.000000   0.000000   0.420080   0.000000   0.000000   25.0000     0.3869
   -6.000     0.000  -0.230053   0.007679   0.015975   0.023654  -0.000000   0.000000   0.379641  -0.000000   0.000000   25.0000     0.4177
   -5.500     0.000  -0.184858   0.006157   0.015535   0.021692  -0.000000  -0.000000   0.339060  -0.000000  -0.000000   25.0000     0.4636
   -5.000     0.000  -0.139601   0.004850   0.015121   0.019970  -0.000000   0.000000   0.298351   0.000000   0.000000   25.0000     0.5396
   -4.500     0.000  -0.094291   0.003759   0.014734   0.018493  -0.000000   0.000000   0.257524   0.000000   0.000000   25.0000     0.6887
   -4.000     0.000  -0.048938   0.002885   0.014374   0.017259  -0.000000   0.000000   0.216591   0.000000   0.000000   25.0000     1.1145
   -3.500     0.000  -0.003549   0.002229   0.014037   0.016267  -0.000000   0.000000   0.175563   0.000000  -0.000000   25.0000    12.4389
   -3.000     0.000   0.041865   0.001793   0.013719   0.015512  -0.000000   0.000000   0.134453   0.000000   0.000000   25.0000    -0.8060
   -2.500     0.000   0.087296   0.001576   0.013456   0.015033  -0.000000   0.000000   0.093272  -0.000000   0.000000   25.0000    -0.2674
   -2.000     0.000   0.132733   0.001580   0.013242   0.014821  -0.000000   0.000000   0.052034   0.000000   0.000000   25.0000    -0.0974
   -1.500     0.000   0.178169   0.001804   0.013056   0.014859  -0.000000  -0.000000   0.010749   0.000000   0.000000   25.0000    -0.0142
   -1.000     0.000   0.223593   0.002248   0.012912   0.015160   0.000000   0.000000  -0.030570  -0.000000   0.000000   25.0000     0.0352
   -0.500     0.000   0.268996   0.002913   0.012806   0.015718   0.000000  -0.000000  -0.071912  -0.000000  -0.000000   25.0000     0.0680
    0.000     0.000   0.314370   0.003798   0.012728   0.016526   0.000000   0.000000  -0.113263  -0.000000   0.000000   25.0000     0.0913
    0.500     0.000   0.359705   0.004903   0.012680   0.017583  -0.000000   0.000000  -0.154612  -0.000000   0.000000   25.0000     0.1087
    1.000     0.000   0.404991   0.006227   0.012711   0.018938   0.000000   0.000000  -0.195946   0.000000  -0.000000   25.0000     0.1222
    1.500     0.000   0.450220   0.007770   0.013216   0.020986   0.000000   0.000000  -0.237258  -0.000000  -0.000000   25.0000     0.1330
    2.000     0.000   0.495382   0.009531   0.013818   0.023349  -0.000000   0.000000  -0.278534   0.000000   0.000000   25.0000     0.1419
    2.500     0.000   0.540468   0.011508   0.014215   0.025723  -0.000000  -0.000000  -0.319759   0.000000   0.000000   25.0000     0.1493
    3.000     0.000   0.585470   0.013701   0.014496   0.028197  -0.000000   0.000000  -0.360919  -0.000000  -0.000000   25.0000     0.1555
    3.500     0.000   0.630378   0.016108   0.014796   0.030904  -0.000000   0.000000  -0.402005  -0.000000  -0.000000   25.0000     0.1609
    4.000     0.000   0.675182   0.018727   0.015114   0.033841  -0.000000   0.000000  -0.443003   0.000000   0.000000   25.0000     0.1656
    4.500     0.000   0.719875   0.021557   0.015445   0.037003  -0.000000   0.000000  -0.483901   0.000000   0.000000   25.0000     0.1697
    5.000     0.000   0.764447   0.024596   0.015772   0.040368  -0.000000  -0.000000  -0.524687  -0.000000  -0.000000   25.0000     0.1733
    5.500     0.000   0.808889   0.027842   0.016122   0.043964   0.000000   0.000000  -0.565349   0.000000   0.000000   25.0000     0.1766
    6.000     0.000   0.853192   0.031293   0.016507   0.047799  -0.000000   0.000000  -0.605875  -0.000000  -0.000000   25.0000     0.1795
    6.500     0.000   0.897348   0.034946   0.016923   0.051869  -0.000000   0.000000  -0.646255  -0.000000  -0.000000   25.0000     0.1822
    7.000     0.000   0.941348   0.038798   0.017366   0.056165  -0.000000   0.000000  -0.686474  -0.000000   0.000000   25.0000     0.1846
    7.500     0.000   0.985183   0.042848   0.017846   0.060694  -0.000000   0.000000  -0.726522  -0.000000  -0.000000   25.0000     0.1868
    8.000     0.000   1.028845   0.047093   0.018366   0.065459  -0.000000   0.000000  -0.766388  -0.000000  -0.000000   25.0000     0.1889
    8.500     0.000   1.072326   0.051528   0.018939   0.070467  -0.000000  -0.000000  -0.806060  -0.000000   0.000000   25.0000     0.1908
    9.000     0.000   1.115616   0.056152   0.019584   0.075736  -0.000000   0.000000  -0.845531  -0.000000  -0.000000   25.0000     0.1926
    9.500     0.000   1.158708   0.060961   0.020324   0.081285  -0.000000   0.000000  -0.884790  -0.000000  -0.000000   25.0000     0.1942
   10.000     0.000   1.201593   0.065952   0.021189   0.087141  -0.000000   0.000000  -0.923828  -0.000000  -0.000000   25.0000     0.1958
   10.500     0.000   1.244263   0.071121   0.022227   0.093348  -0.000000   0.000000  -0.962637   0.000000   0.000000   25.0000     0.1973
   11.000     0.000   1.286711   0.076464   0.023503   0.099967  -0.000000   0.000000  -1.001213   0.000000   0.000000   25.0000     0.1987
   11.500     0.000   1.328928   0.081978   0.025132   0.107110  -0.000000   0.000000  -1.039552  -0.000000  -0.000000   25.0000     0.2000
   12.000     0.000   1.370907   0.087658   0.027336   0.114995  -0.000000   0.000000  -1.077663  -0.000000  -0.000000   25.0000     0.2013
   12.500     0.000   1.412640   0.093501   0.030687   0.124188  -0.000000  -0.000000  -1.115579  -0.000000  -0.000000   25.0000     0.2025


