xflr5 v6.61

Plane name :        wist_2
Polar name :        T1-25.0 m/s-VLM1
Freestream speed :  25.000 m/s


   alpha      Beta       CL          CDi        CDv        CD         CY         Cl         Cm         Cn        Cni       QInf        XCP
  -10.000     0.000  -0.607522   0.015045   0.018910   0.033955   0.000000   0.000000   0.358658  -0.000000  -0.000000   25.0000     0.1591
   -9.500     0.000  -0.561559   0.013039   0.018170   0.031209   0.000000   0.000000   0.333527  -0.000000  -0.000000   25.0000     0.1597
   -9.000     0.000  -0.515495   0.011177   0.017501   0.028678   0.000000   0.000000   0.308266  -0.000000   0.000000   25.0000     0.1605
   -8.500     0.000  -0.469336   0.009461   0.016888   0.026349   0.000000   0.000000   0.282881  -0.000000  -0.000000   25.0000     0.1615
   -8.000     0.000  -0.423089   0.007893   0.016312   0.024205   0.000000   0.000000   0.257378  -0.000000  -0.000000   25.0000     0.1627
   -7.500     0.000  -0.376762   0.006475   0.015773   0.022248   0.000000   0.000000   0.231765  -0.000000   0.000000   25.0000     0.1643
   -7.000     0.000  -0.330363   0.005206   0.015273   0.020480   0.000000   0.000000   0.206050  -0.000000   0.000000   25.0000     0.1663
   -6.500     0.000  -0.283898   0.004090   0.014809   0.018899   0.000000   0.000000   0.180238  -0.000000  -0.000000   25.0000     0.1690
   -6.000     0.000  -0.237376   0.003126   0.014381   0.017506   0.000000   0.000000   0.154338  -0.000000   0.000000   25.0000     0.1727
   -5.500     0.000  -0.190804   0.002316   0.013981   0.016296   0.000000   0.000000   0.128356  -0.000000  -0.000000   25.0000     0.1783
   -5.000     0.000  -0.144189   0.001660   0.013611   0.015271   0.000000   0.000000   0.102300  -0.000000   0.000000   25.0000     0.1875
   -4.500     0.000  -0.097540   0.001159   0.013276   0.014435   0.000000   0.000000   0.076178  -0.000000  -0.000000   25.0000     0.2057
   -4.000     0.000  -0.050864   0.000815   0.012978   0.013793   0.000000   0.000000   0.049997  -0.000000  -0.000000   25.0000     0.2572
   -3.500     0.000  -0.004167   0.000626   0.012702   0.013328   0.000000   0.000000   0.023765  -0.000000  -0.000000   25.0000     1.4634
   -3.000     0.000   0.042540   0.000595   0.012492   0.013087   0.000000  -0.000000  -0.002510  -0.000000  -0.000000   25.0000     0.0208
   -2.500     0.000   0.089253   0.000720   0.012302   0.013022   0.000000  -0.000000  -0.028822  -0.000000  -0.000000   25.0000     0.0881
   -2.000     0.000   0.135961   0.001002   0.012137   0.013139   0.000000  -0.000000  -0.055163  -0.000000  -0.000000   25.0000     0.1092
   -1.500     0.000   0.182659   0.001442   0.012007   0.013449   0.000000  -0.000000  -0.081524  -0.000000  -0.000000   25.0000     0.1195
   -1.000     0.000   0.229338   0.002039   0.011911   0.013950   0.000000  -0.000000  -0.107898  -0.000000  -0.000000   25.0000     0.1256
   -0.500     0.000   0.275990   0.002792   0.011862   0.014654   0.000000  -0.000000  -0.134277  -0.000000  -0.000000   25.0000     0.1297
    0.000     0.000   0.322608   0.003702   0.011862   0.015564   0.000000  -0.000000  -0.160654  -0.000000  -0.000000   25.0000     0.1325
    0.500     0.000   0.369185   0.004768   0.011894   0.016661   0.000000  -0.000000  -0.187022  -0.000000  -0.000000   25.0000     0.1347
    1.000     0.000   0.415712   0.005989   0.012089   0.018077   0.000000  -0.000000  -0.213373  -0.000000  -0.000000   25.0000     0.1364
    1.500     0.000   0.462182   0.007364   0.012633   0.019997   0.000000  -0.000000  -0.239702  -0.000000  -0.000000   25.0000     0.1377
    2.000     0.000   0.508587   0.008894   0.013185   0.022079   0.000000  -0.000000  -0.266001  -0.000000  -0.000000   25.0000     0.1388
    2.500     0.000   0.554920   0.010577   0.013487   0.024064   0.000000  -0.000000  -0.292258  -0.000000  -0.000000   25.0000     0.1398
    3.000     0.000   0.601174   0.012411   0.013765   0.026176   0.000000  -0.000000  -0.318466  -0.000000  -0.000000   25.0000     0.1406
    3.500     0.000   0.647340   0.014396   0.014066   0.028462   0.000000  -0.000000  -0.344619  -0.000000  -0.000000   25.0000     0.1413
    4.000     0.000   0.693412   0.016531   0.014385   0.030916   0.000000  -0.000000  -0.370708  -0.000000  -0.000000   25.0000     0.1419
    4.500     0.000   0.739382   0.018813   0.014729   0.033542   0.000000  -0.000000  -0.396726  -0.000000  -0.000000   25.0000     0.1424
    5.000     0.000   0.785242   0.021242   0.015104   0.036346   0.000000  -0.000000  -0.422666  -0.000000  -0.000000   25.0000     0.1429
    5.500     0.000   0.830985   0.023816   0.015515   0.039331   0.000000  -0.000000  -0.448520  -0.000000  -0.000000   25.0000     0.1434
    6.000     0.000   0.876604   0.026533   0.015956   0.042489   0.000000  -0.000000  -0.474280  -0.000000  -0.000000   25.0000     0.1438
    6.500     0.000   0.922091   0.029391   0.016435   0.045826   0.000000  -0.000000  -0.499941  -0.000000  -0.000000   25.0000     0.1442
    7.000     0.000   0.967441   0.032389   0.016956   0.049345   0.000000  -0.000000  -0.525495  -0.000000  -0.000000   25.0000     0.1445
    7.500     0.000   1.012644   0.035524   0.017525   0.053049   0.000000  -0.000000  -0.550933  -0.000000  -0.000000   25.0000     0.1449
    8.000     0.000   1.057694   0.038793   0.018150   0.056944   0.000000  -0.000000  -0.576250  -0.000000  -0.000000   25.0000     0.1452
    8.500     0.000   1.102585   0.042196   0.018843   0.061039   0.000000  -0.000000  -0.601438  -0.000000  -0.000000   25.0000     0.1455
    9.000     0.000   1.147309   0.045729   0.019623   0.065352   0.000000  -0.000000  -0.626492  -0.000000  -0.000000   25.0000     0.1458
    9.500     0.000   1.191860   0.049390   0.020526   0.069916   0.000000  -0.000000  -0.651407  -0.000000  -0.000000   25.0000     0.1460
   10.000     0.000   1.236230   0.053176   0.021595   0.074772   0.000000  -0.000000  -0.676180  -0.000000  -0.000000   25.0000     0.1463
   10.500     0.000   1.280412   0.057085   0.023360   0.080446   0.000000  -0.000000  -0.700842   0.000000  -0.000000   25.0000     0.1466


